FoamFile
{
    version     2.0;
    format      ascii;
    class       dictionary;
    location    "system";
    object      fvSchemes;
}
// * * * * * * * * * * * * * * * * * * * * * * * * * * * * * * * * * * * * * //

ddtSchemes
{
    default         steadyState;
}

gradSchemes
{
    default         Gauss linear;
}

divSchemes
{
    default             none;

    div(phi,U)          bounded Gauss linearUpwind grad(U);
    div(phi,h)          bounded Gauss linearUpwind grad(h);
    div(phi,K)          bounded Gauss linearUpwind grad(K);
    div(phi,k)          bounded Gauss upwind;
    div(phi,epsilon)    bounded Gauss upwind;
    div(((rho*nuEff)*dev2(T(grad(U))))) Gauss linear;
}

laplacianSchemes
{
    default         Gauss linear corrected;
}

interpolationSchemes
{
    default         linear;
}

snGradSchemes
{
    default         corrected;
}

// ************************************************************************* //
