/*--------------------------------*- C++ -*----------------------------------*\
| =========                 |                                                 |
| \\      /  F ield         | OpenFOAM: The Open Source CFD Toolbox           |
|  \\    /   O peration     | Version:  v2312                                 |
|   \\  /    A nd           | Website:  www.openfoam.com                      |
|    \\/     M anipulation  |                                                 |
\*---------------------------------------------------------------------------*/
FoamFile
{
    version     2.0;
    format      ascii;
    class       volVectorField;
    object      U;
}
// * * * * * * * * * * * * * * * * * * * * * * * * * * * * * * * * * * * * * //

dimensions      [0 1 -1 0 0 0 0];

internalField   uniform (40 0 0);

boundaryField
{
    inlet
    {
        type            fixedValue;
        value           uniform (40 0 0);
    }

    outlet
    {
        type            zeroGradient;
    }

    ground
    {
        type            fixedValue;
        value           uniform (40 0 0);
    }

    top
    {
        type            symmetryPlane;
    }

    side_left
    {
        type            symmetryPlane;
    }

    side_right
    {
        type            symmetryPlane;
    }

    ahmed_body
    {
        type            noSlip;
    }
}

// ************************************************************************* //
