FoamFile
{
    version     2.0;
    format      ascii;
    class       dictionary;
    location    "system";
    object      controlDict;
}

application     interFoam;

startFrom       startTime;

startTime       0;

stopAt          endTime;

endTime         2;

deltaT          0.0001;

writeControl    adjustableRunTime;

writeInterval   0.05;

purgeWrite      0;

writeFormat     binary;

writePrecision  6;

writeCompression uncompressed;

timeFormat      general;

timePrecision   6;

runTimeModifiable yes;

adjustTimeStep  yes;

maxCo           0.5;

maxAlphaCo      0.3;

maxDeltaT       0.01;

functions
{
    forces
    {
        type            forces;
        libs            ("libforces.so");
        writeControl    timeStep;
        writeInterval   10;
        patches         (boat);
        rho             rhoInf;
        rhoInf          998.2;
        CofR            (0 0 0);
    }

    forceCoeffs
    {
        type            forceCoeffs;
        libs            ("libforces.so");
        writeControl    timeStep;
        writeInterval   10;
        patches         (boat);
        rho             rhoInf;
        rhoInf          998.2;
        CofR            (0 0 0);
        liftDir         (0 0 1);
        dragDir         (1 0 0);
        pitchAxis       (0 1 0);
        magUInf         0.3;
        lRef            0.155;
        Aref            0.00443;   // approximate wetted frontal area (W*draft)
    }
}
