/*--------------------------------*- C++ -*----------------------------------*\
  =========                 |
  \\      /  F ield         | OpenFOAM: The Open Source CFD Toolbox
   \\    /   O peration     | Website:  https://openfoam.org
    \\  /    A nd           | Version:  6
     \\/     M anipulation  |
\*---------------------------------------------------------------------------*/
FoamFile
{
    version     2.0;
    format      ascii;
    class       polyBoundaryMesh;
    location    "constant/polyMesh";
    object      boundary;
}
// * * * * * * * * * * * * * * * * * * * * * * * * * * * * * * * * * * * * * //

5
(
    inlet
    {
        type            patch;
        nFaces          20;
        startFace       36461;
    }
    outlet
    {
        type            patch;
        nFaces          20;
        startFace       36481;
    }
    walls
    {
        type            wall;
        inGroups        1(wall);
        nFaces          120;
        startFace       36501;
    }
    frontAndBack
    {
        type            empty;
        inGroups        1(empty);
        nFaces          5048;
        startFace       36621;
    }
    airfoil
    {
        type            wall;
        inGroups        1(wall);
        nFaces          4074;
        startFace       41669;
    }
)

// ************************************************************************* //
