/*--------------------------------*- C++ -*----------------------------------*\
| =========                 |                                                 |
| \\      /  F ield         | OpenFOAM: The Open Source CFD Toolbox           |
|  \\    /   O peration     | Version:  v2312                                 |
|   \\  /    A nd           | Website:  www.openfoam.com                      |
|    \\/     M anipulation  |                                                 |
\*---------------------------------------------------------------------------*/
FoamFile
{
    version     2.0;
    format      ascii;
    class       volScalarField;
    object      epsilon;
}
// * * * * * * * * * * * * * * * * * * * * * * * * * * * * * * * * * * * * * //

// Turbulent dissipation rate
// epsilon = Cmu^0.75 * k^1.5 / L
// Cmu = 0.09, k = 0.375, L = 0.07 * D_h (hydraulic diameter)
// L = 0.07 * 0.6 = 0.042 m (using MRF zone diameter as reference)
// epsilon = 0.09^0.75 * 0.375^1.5 / 0.042 = 14.855

dimensions      [0 2 -3 0 0 0 0];

internalField   uniform 14.855;

boundaryField
{
    inlet
    {
        type            fixedValue;
        value           uniform 14.855;
    }

    outlet
    {
        type            zeroGradient;
    }

    topAndBottom
    {
        type            slip;
    }

    frontAndBack
    {
        type            empty;
    }
}

// ************************************************************************* //
